Resultados_ano1/LineSummary.csv
line,maxCurrentA,normAmps,maxLoadingPct,meanLoadingPct,overloadHours
rbt_1607347,93.04254284783953,124.95,74.4638198061941,25.70998702137219,0
sbt_7584,93.04255297924244,163.8,56.802535396362906,19.612107078480104,0
sbt_22840,93.04254833924178,163.8,56.802532563639666,19.61210700168153,0
rbt_630758,31.600924428672542,76.65,41.22755959383241,17.134924121497836,0
rbt_637576,24.915068046135396,61.95,40.218027515957054,14.458749248063762,0
rbt_606147,25.623475010355524,76.65,33.429191142016336,12.229294971713196,0
rbt_632607,40.873597770833356,124.95,32.71196300186743,15.396898629651703,0
rbt_637918,17.930615721244365,61.95,28.943689622670483,11.127443212610274,0
rbt_1130761,25.38045445385194,90.3,28.106815563512672,13.225968827777328,0
rbt_1607350,22.1300525609411,90.3,24.50725643515072,8.725361820241927,0
rbt_605836,21.546627946658397,90.3,23.861160516786708,11.237045284634531,0
rbt_637360,14.723616467215315,61.95,23.766935378878635,11.166134909643938,0
rbt_606126,13.628601593511894,61.95,21.999356890253257,7.756458452245439,0
rbt_1633671,13.465529093510527,61.95,21.73612444473047,9.737433435045498,0
rbt_3405844,18.992304836438365,90.3,21.03245275353086,7.212182913917015,0
rbt_626476,12.727164486463222,61.95,20.544252601231996,9.664933123112437,0
rbt_606143,14.945298248096606,76.65,19.4981059988214,6.840651587957054,0
rbt_3435739,13.540583047828019,76.65,17.665470382032638,7.931935916642593,0
rbt_635862,10.8022062868313,61.95,17.436975442826956,5.951868044570362,0
rbt_605816,10.29297593405104,61.95,16.61497325916229,6.139933554271711,0
rbt_1627323,12.52622984415498,76.65,16.342113299615104,7.687737384726838,0
sbt_34378,20.56540685843237,128.1,16.05418177863573,7.8763940765886575,0
sbt_34379,20.501197603056173,128.1,16.004057457498966,7.763326194994014,0
rbt_637397,9.76705314980606,61.95,15.766026069097755,7.410041372152431,0
sbt_24791,25.62349635741511,163.8,15.643160169362094,5.722683549900171,0
sbt_3174,25.623487462904965,163.8,15.64315473925822,5.722685165018912,0
rbt_609688,11.268129112284024,76.65,14.700755528093964,5.271887120501783,0
smt_19119,21.153661559032855,163.8,12.914323296112853,7.8086548040164665,0
smt_29422,21.153164785987354,163.8,12.914020015865294,7.808826388878004,0
smt_17184,21.152565703232007,163.8,12.913654275477416,7.808246744155734,0
rbt_606139,9.383603280856605,76.65,12.242143875872934,4.34305843802222,0
rbt_623004,7.332463857061791,61.95,11.836099849978678,4.514077104502183,0
rbt_1638954,7.1515193170083595,61.95,11.544018267971525,5.425911552113199,0
rbt_1607265,10.05123932691593,90.3,11.130940561368693,5.237818462328091,0
sbt_11363,18.218607028929334,163.8,11.12247071363207,4.07530581854495,0
sbt_9361,21.546627985791247,216.3,9.961455379468907,4.691193628317574,0
rbt_635543,5.871650971997754,61.95,9.478048380948755,3.6785697272346134,0
rbt_606121,5.803876590737026,61.95,9.368646635572278,4.401877501695046,0
rbt_1605991,5.551415039139496,61.95,8.961121935656974,4.2127534324498,0
rbt_1607280,5.5065274153724815,61.95,8.888664108752996,4.177244758985869,0
sbt_34393,11.080749812491133,128.1,8.650077917635546,5.686659895660857,0
rbt_606114,7.5293817804440994,90.3,8.338185803371095,3.919137250749119,0
rbt_627337,7.329786225407605,90.3,8.117149751281955,3.8167095202860923,0
rbt_1621994,7.188684598612017,90.3,7.960891028363252,3.740977278753219,0
rbt_626678,7.025847759714502,90.3,7.780562303116835,3.6588358196780972,0
rbt_606150,4.779806445281809,61.95,7.715587482295091,3.6246227982269397,0
rbt_1607272,6.88241627877708,90.3,7.621723453795217,3.585794711247374,0
rbt_623007,4.7012964588796775,61.95,7.5888562693780095,3.565568522622236,0
sbt_22748,16.281875921064238,216.3,7.527450726335755,3.5415541855674206,0
sbt_7427,16.281867657326433,216.3,7.527446905837463,3.5415502490087056,0
sbt_34383,9.632097740200056,128.1,7.519201982982089,4.4287991444326265,0
sbt_34392,9.632094580825695,128.1,7.519199516647694,4.713374880319776,0
sbt_34384,9.619664390625477,128.1,7.509496011417234,3.62700001548898,0
rbt_1630759,5.691965275558404,76.65,7.425916863089895,3.492708645702334,0
rbt_606122,4.595983253731877,61.95,7.418859166637412,3.486937948962147,0
rbt_1229546,6.672109050850959,90.3,7.388825083998847,3.4745406091337814,0
smt_34713,21.14043476825343,286.65,7.374999047009744,4.459296548818742,0
smt_34700,21.140292638328717,286.65,7.374949463920712,4.459266814727925,0
smt_34701,21.13995597081896,286.65,7.374832014937716,4.459196405287135,0
smt_34715,21.139668084071445,286.65,7.37473158348908,4.459136222826491,0
smt_34702,21.139382953807353,286.65,7.374632113660335,4.459076639519699,0
smt_34703,21.138992406513935,286.65,7.374495868311159,4.4589950643066585,0
smt_34704,21.138522933125987,286.65,7.374332089002612,4.458897060048051,0
smt_34716,21.138229525833516,286.65,7.3742297316705105,4.458835841570271,0
smt_34705,21.137934539021142,286.65,7.374126823311057,4.458774317864983,0
smt_34717,21.137583052206303,286.65,7.374004204502461,4.458701042129685,0
smt_34706,21.137227191192196,286.65,7.373880059721681,4.458626889760849,0
smt_34707,21.136808215756066,286.65,7.373733897001943,4.458539631455126,0
smt_34708,21.13641787579779,286.65,7.373597723983181,4.458458381242054,0
smt_34709,21.135914173993733,286.65,7.3734220038352465,4.458353597648644,0
smt_34718,21.135633590854518,286.65,7.373324120305083,4.458295259635692,0
smt_34710,21.135359212919933,286.65,7.373228401507041,4.458238233137633,0
smt_34719,21.135072254565355,286.65,7.3731282939352365,4.458178614540081,0
smt_34711,21.134786233713182,286.65,7.37302851341817,4.458119213743447,0
smt_34720,21.13446013218402,286.65,7.372914750456662,4.458051517001011,0
smt_34712,21.134159301167387,286.65,7.372809803302769,4.457989092713347,0
smt_34721,21.133943448340553,286.65,7.372734501427021,4.4579443178878035,0
smt_34714,21.133934576397973,286.65,7.3727314063833855,4.457942477671843,0
rbt_1638606,4.55098307889096,61.95,7.3462196592267315,3.4538302282042026,0
rbt_605905,6.511181836887329,90.3,7.210611115046876,3.389450749423655,0
rbt_1607283,6.447280521787106,90.3,7.139845539077637,3.3584746488503465,0
smt_31417,22.60028700807784,327.6,6.898744507960268,4.194971022652883,0
smt_31416,22.600242592488197,327.6,6.898730950087972,4.194962854136125,0
smt_31411,22.600225669599585,327.6,6.898725784371057,4.194959741316944,0
smt_31412,22.600206516631637,327.6,6.8987199379217445,4.194956218904052,0
smt_31413,22.60009294956933,327.6,6.898685271541309,4.1949353346226586,0
smt_31414,22.600007607069777,327.6,6.89865922071727,4.194919642493458,0
smt_31415,22.599791361680218,327.6,6.898593211746097,4.194879888051886,0
smt_4387,22.59943576092344,327.6,6.898484664506545,4.194814536860471,0
smt_4863,22.599025479169363,327.6,6.898359425875873,4.194739171036278,0
smt_4693,22.598681294435305,327.6,6.89825436338074,4.194675975194991,0
smt_4591,22.598366767365924,327.6,6.898158353896802,4.1946182475414995,0
smt_17964,22.598130002221726,327.6,6.898086081264262,4.185382534481328,0
smt_4627,22.598032995428575,327.6,6.898056469911042,4.194557011415177,0
smt_4527,22.59776603545747,327.6,6.897974980298373,4.194508050706003,0
smt_6826,22.5977016705175,327.6,6.897955332880799,4.18530329873007,0
smt_23134,22.597332071934893,327.6,6.897842512800638,4.19442849470211,0
smt_7012,22.597207266379446,327.6,6.897804415866742,4.1852118904915185,0
smt_18545,22.59694300075185,327.6,6.897723748703251,4.194357203666637,0
smt_22791,22.596764259525557,327.6,6.897669187889363,4.185130030376368,0
smt_10381,22.59653081705336,327.6,6.897597929503467,4.194281713862067,0
smt_18806,22.596322599843237,327.6,6.897534371136518,4.194243593867433,0
smt_24122,22.596254836703533,327.6,6.897513686417439,4.194231190247771,0
smt_7020,22.59624714872686,327.6,6.8975113396602135,4.185034531571232,0
smt_6842,22.59584927667646,327.6,6.897389889095379,4.184961093431847,0
smt_6830,22.59524572933201,327.6,6.897205656084251,4.184849758576465,0
smt_29390,22.59489703876394,327.6,6.89709921818191,4.184583782014341,0
smt_31407,22.594519888228305,327.6,6.896984092865782,4.184715970368445,0
smt_17776,22.594312383897396,327.6,6.896920752105432,4.184474673674814,0
smt_31408,22.594075406621418,327.6,6.896848414719601,4.193485621738055,0
smt_10747,22.593717485280806,327.6,6.896739159121125,4.184363730343854,0
smt_18202,22.593200912238146,327.6,6.896581475042169,4.184267456781912,0
smt_17794,22.5927215873023,327.6,6.896435160959187,4.184178177317437,0
smt_29420,22.59242543285415,327.6,6.896344759723489,4.184123040460178,0
smt_22739,22.592252365193318,327.6,6.89629193076719,4.184090828293264,0
smt_17795,22.591681745545824,327.6,6.896117748945612,4.183984668254964,0
smt_29389,22.591045204246242,327.6,6.895923444519609,4.183866327967237,0
smt_19163,22.590496754187086,327.6,6.895756029971638,4.183764435927628,0
smt_17961,22.590147223612,327.6,6.8956493356568975,4.183699533825315,0
smt_29388,22.5897441224625,327.6,6.895526288907966,4.183624717734609,0
smt_17962,22.58924872101614,327.6,6.895375067465244,4.183532819292121,0
rbt_1107340,6.1734184766290525,90.3,6.836565311881565,3.2168163352315777,0
rbt_605822,6.172879158659657,90.3,6.835968060531182,3.2166657794375086,0
rbt_1626486,6.169066389285625,90.3,6.8317457245687985,3.2102475374892125,0
rbt_1607287,6.16641411350918,90.3,6.828808542092116,3.2117941183349017,0
rbt_606132,4.123008630869548,61.95,6.6553811636312314,3.1270078723248047,0
rbt_623433,5.971989955455884,90.3,6.613499396961112,3.111330475239587,0
rbt_626698,5.9300484264511635,90.3,6.567052520986892,3.086396725300965,0
rbt_1607252,4.997231074875606,76.65,6.519544781311945,3.0657130456781068,0
smt_6447,21.20507039117664,327.6,6.472854209760878,3.916206685778471,0
smt_6627,21.204708519984827,327.6,6.472743748469116,3.9161420626492878,0
smt_24630,21.20413164383318,327.6,6.472567656847734,3.916039110326091,0
smt_24629,21.203775716481815,327.6,6.472459009915084,3.915975630467093,0
smt_24628,21.20330120838703,327.6,6.472314166174306,3.915891050028746,0
smt_24627,21.20294893787641,327.6,6.472206635493409,3.9158282940789175,0
smt_6957,21.20261941527826,327.6,6.472106048619737,3.9157696181871553,0
smt_6431,21.202209340809528,327.6,6.47198087326298,3.915696636257153,0
smt_24626,21.201868095528564,327.6,6.471876708036802,3.915635935558443,0
smt_12228,21.201497087669118,327.6,6.471763457774456,3.915569973141151,0
smt_6510,21.159945267077198,327.6,6.459079751855066,3.9056312615233684,0
smt_19223,21.15944403945461,327.6,6.45892675197027,3.905540831918262,0
smt_22843,21.159017433390197,327.6,6.458796530338888,3.905463913940825,0
smt_6737,21.158645358735804,327.6,6.458682954437058,3.9053968646588815,0
smt_24665,21.158160536193847,327.6,6.458534962208133,3.9053095488856524,0
smt_24635,21.157659704041475,327.6,6.458382083040743,3.905219410592432,0
smt_24637,21.157141513101756,327.6,6.458223905098216,3.9051262131140594,0
smt_24636,21.15663480385099,327.6,6.458069231944746,3.9050351445908773,0
smt_19174,21.156173490451366,327.6,6.457928415888695,3.9049522898372295,0
smt_6686,21.155629318371496,327.6,6.457762307195206,3.9048546205738703,0
smt_19173,21.154714326793737,327.6,6.457483005736793,3.9046905602717037,0
smt_19172,21.154405167481194,327.6,6.457388634762269,3.9046351738797864,0
smt_6544,21.154067835165765,327.6,6.457285663970014,3.904574767101629,0
smt_6535,21.15356925910471,327.6,6.457133473475187,3.9044855375035556,0
smt_24511,21.153170401895313,327.6,6.457011722190266,3.90423592062267,0
smt_29446,21.152552493619748,327.6,6.456823105500534,3.9041209148164318,0
smt_24634,21.152479471039808,327.6,6.456800815335716,3.9042907119637213,0
smt_32671,21.15214500410771,327.6,6.456698719202597,3.904045123615569,0
smt_24633,21.15209061963956,327.6,6.456682118327094,3.9042212658045283,0
smt_6389,21.151695226681678,327.6,6.456561424506006,3.9039615138313746,0
smt_24510,21.1516814126732,327.6,6.456557207775701,3.903958946978538,0
smt_24632,21.151672346138394,327.6,6.456554440213185,3.904146606733159,0
smt_1873,21.151260699440474,327.6,6.4564287849329896,3.9040731726912346,0
smt_24509,21.151203244280325,327.6,6.456411246727815,3.9038701160189184,0
smt_24631,21.15089186343994,327.6,6.45631619763124,3.904007411185225,0
smt_24508,21.150784125691416,327.6,6.4562833106506154,3.903792301008469,0
smt_6527,21.150508694924177,327.6,6.45619923532484,3.9039391298577115,0
smt_6426,21.150406318459698,327.6,6.4561679848778075,3.9037221929189734,0
smt_6420,21.15002114888741,327.6,6.4560504117482935,3.9036507546318915,0
smt_6140,21.14960495932139,327.6,6.455923369756224,3.9035736039128213,0
smt_6653,21.149208006883683,327.6,6.455802199903443,3.903500058828971,0
smt_6650,21.148816898344176,327.6,6.455682813902373,3.9034276342629144,0
smt_29445,21.148433266362655,327.6,6.45556571012291,3.9033566306562015,0
smt_24507,21.14803863401999,327.6,6.45544524847985,3.90328362874429,0
smt_24506,21.147645366250927,327.6,6.455325203373298,3.9032109172823213,0
smt_24505,21.147239559795988,327.6,6.4552013308290555,3.9031359273273627,0
smt_24459,21.14689138213878,327.6,6.455095049492912,3.903071618959332,0
smt_24458,21.14647202255228,327.6,6.454967039851123,3.902994202812041,0
smt_24457,21.1460500635144,327.6,6.454838236726007,3.902916350379821,0
smt_24456,21.14566207810238,327.6,6.454719804060555,3.90284480474991,0
smt_24455,21.14526379481944,327.6,6.454598227966861,3.9027713986349206,0
smt_24454,21.14488170949583,327.6,6.454481596305198,3.902701014513194,0
smt_19165,21.14445984686178,327.6,6.4543528226073805,3.9026233446870386,0
smt_17113,21.14401878047772,327.6,6.45421818695901,3.9025421859620457,0
smt_6993,21.14305119992531,327.6,6.453922832700034,3.9023643131860903,0
smt_24453,21.142464155841243,327.6,6.453743637314176,3.9022565075444255,0
smt_24452,21.14200981703875,327.6,6.453604950256028,3.902173130228448,0
smt_24451,21.14161164211906,327.6,6.45348340724025,3.9021001014319254,0
smt_24450,21.141235536567734,327.6,6.453368600905901,3.9020311561521823,0
smt_6394,21.140824094633977,327.6,6.453243008130029,3.901955773034228,0
smt_24668,21.133924323082248,327.6,6.451136850757706,3.9006978072903267,0
smt_29393,21.13376337764653,327.6,6.451087722114325,3.9006686031794007,0
smt_19218,21.132410827306373,327.6,6.450674855710126,3.900423430230911,0
smt_6502,21.131940218134915,327.6,6.450531202116884,3.9003382298615255,0
smt_24667,21.1316942948979,327.6,6.450456133973718,3.9002937289368798,0
smt_6683,21.131033116898937,327.6,6.45025430918771,3.900174159684351,0
smt_19220,21.130496668970995,327.6,6.4500905582939545,3.9000772260968186,0
smt_22844,21.130123610677533,327.6,6.449976682135998,3.9000098580509763,0
smt_6687,21.129713706766065,327.6,6.4498515588419,3.8999358758412392,0
smt_24666,21.12940641538231,327.6,6.449757758053208,3.8998804410366827,0
rbt_637356,3.905482121574025,61.95,6.304248783816021,2.963280715084583,0
rbt_631391,5.621643195900302,90.3,6.225518489369105,4.71474101832995,0
sbt_28279,13.465541298064725,216.3,6.225400507658217,2.788876890988927,0
sbt_20214,13.4655338475632,216.3,6.225397063136015,2.7888769493576357,0
rbt_605855,4.635436966182508,76.65,6.047536811718861,2.844366646620941,0
rbt_1607255,5.413547952291395,90.3,5.9950697146084115,2.818009898721367,0
rbt_636933,4.507152296837669,76.65,5.880172598614049,2.766598748228059,0
rbt_605910,3.5400228254663677,61.95,5.714322559267744,2.684350953665241,0
rbt_627343,5.125883358145637,90.3,5.67650427258653,2.667318062861763,0
rbt_1607304,3.4434570645625038,61.95,5.55844562479823,2.6105912829874787,0
rbt_1607305,4.865762443034809,90.3,5.388441243670885,2.5331927730855313,0
rbt_1607285,3.3044890724482316,61.95,5.3341227965266045,2.5047229565430205,0
rbt_606103,4.016074735966754,76.65,5.239497372428902,2.462790798946043,0
rbt_3405846,4.003171935307423,76.65,5.2226639730038125,2.4557541696050054,0
rbt_606109,3.188057308821998,61.95,5.146178061052458,2.417656249062417,0
rbt_605825,4.646204356545287,90.3,5.145298290747826,2.419290948771815,0
sbt_4580,8.358186483929138,163.8,5.102677951116689,2.400743495780256,0
rbt_1631852,4.598909534126416,90.3,5.092923072122277,2.393745565605009,0
rbt_605993,4.572178958997143,90.3,5.063321106309129,2.3794984414048455,0
rbt_621999,4.538837017215403,90.3,5.0263975827413105,2.3625399618993375,0
rbt_630753,4.536385795550961,90.3,5.023683051551452,2.3623360884876763,0
sbt_6049,8.198535273763161,163.8,5.0052107898432,2.3550945249496062,0
rbt_607384,3.0026690720846934,61.95,4.846923441621781,2.277298725730646,0
rbt_1607278,3.7087687607120126,76.65,4.8385763349145625,2.2734672774353646,0
rbt_1628760,4.355541167072656,90.3,4.823412145152442,2.2662756793224075,0
rbt_3433894,4.331572690175471,90.3,4.796868981368185,2.2551309186241224,0
rbt_1607357,3.653968311665404,76.65,4.767081946073586,2.2404318997332098,0
sbt_25907,10.293000414675566,216.3,4.7586687076632295,1.7585243349712296,0
sbt_21361,10.292993685060864,216.3,4.758665596422036,1.7585244351176927,0
sbt_20771,10.292988311161517,216.3,4.758663111956318,1.7585265869102054,0
smt_6110,15.412621748600195,327.6,4.704707493467702,2.7223612763663225,0
smt_6802,14.93677370198946,327.6,4.559454731987015,2.728280575474278,0
smt_24514,14.93623758875128,327.6,4.559291083257412,2.728162201640178,0
smt_24513,14.935680863507468,327.6,4.559121142706797,2.728039366225197,0
smt_19166,14.935244043575407,327.6,4.558987803289196,2.727943050551442,0
smt_6414,14.934817670729297,327.6,4.55885765284777,2.727849092648917,0
smt_18852,14.934386173485567,327.6,4.558725938182407,2.7277540600611085,0
smt_6403,14.93390742637279,327.6,4.558579800480094,2.7276486854936373,0
smt_1832,14.933491267196635,327.6,4.558452767764541,2.727557141840252,0
smt_1831,14.933085853900883,327.6,4.558329015232259,2.727468011199093,0
smt_1829,14.93228998029035,327.6,4.558086074569704,2.727293178649871,0
smt_1828,14.931713920044523,327.6,4.557910232003822,2.727166750289768,0
smt_24515,14.839138166969121,327.6,4.529651455118779,2.6803273386992714,0
smt_6552,14.838762431391613,327.6,4.529536761719051,2.6802433832166126,0
smt_6549,14.838266010321938,327.6,4.529385229036,2.6801325266385967,0
smt_23959,14.837832560426751,327.6,4.529252918323183,2.6800357930722067,0
smt_22744,14.837312602900807,327.6,4.529094201129672,2.679919828249769,0
smt_19175,14.83688018607024,327.6,4.528962205760147,2.6798234495995423,0
smt_19177,14.836387847686563,327.6,4.528811919318242,2.6797137842380057,0
smt_19176,14.835870449582073,327.6,4.528653983388911,2.679598615894672,0
smt_19164,14.835645181624557,327.6,4.528585220276115,2.6795484985799902,0
smt_32311,14.835257578471687,327.6,4.528466904295386,2.679462301020811,0
smt_39119,14.834792694116464,327.6,4.528324998204049,2.679358977106528,0
smt_32312,14.83477086825911,327.6,4.528318335854429,2.679354127986267,0
smt_32310,14.834753069625371,327.6,4.528312902816047,2.6793501733829417,0
smt_32309,14.834322920616989,327.6,4.528181599699935,2.6792546333345784,0
smt_32314,14.834126271842376,327.6,4.528121572601457,2.679210973921309,0
smt_32313,14.834111336183447,327.6,4.528117013487011,2.679207658855937,0
smt_6350,14.761182222568136,327.6,4.505855379294302,2.6656086192657695,0
smt_24517,14.759068797484677,327.6,4.505210255642453,2.665366130752951,0
smt_24520,14.758421200554025,327.6,4.505012576481692,2.6652213580697843,0
smt_19116,14.758115432136027,327.6,4.504919240578762,2.6651530465470628,0
rbt_605806,3.9912596546585584,90.3,4.41999961756208,2.0770984195563593,0
rbt_622714,3.93122400796968,90.3,4.353514958991894,2.0469839839340978,0
rbt_1607258,3.286538892780388,76.65,4.287721973620858,2.0162315089293767,0
rbt_627328,3.838088523250265,90.3,4.250374887320338,2.0002424707231086,0
smt_6066,6.961426623316068,163.8,4.249955203489663,2.3988375627284846,0
smt_6062,6.961048323797664,163.8,4.249724251402725,2.39881339966812,0
smt_6719,6.960630582498591,163.8,4.24946922008461,2.3987883542835293,0
smt_6176,6.960159619736628,163.8,4.249181697030909,2.3987508654859724,0
smt_6144,6.959719740557408,163.8,4.248913150523448,2.3987225480144967,0
smt_6227,6.959253397348468,163.8,4.248628447709687,2.3986883144545224,0
smt_19063,6.958802811437404,163.8,4.2483533647359,2.398657102362711,0
smt_6092,6.95835620372602,163.8,4.248080710455445,2.3986203988623687,0
smt_29474,6.957969282250789,163.8,4.247844494658602,2.3986002632952936,0
smt_29473,6.957536143310696,163.8,4.247580063071243,2.3985723777163264,0
smt_19115,6.957102820464932,163.8,4.24731551920936,2.3985341399654074,0
smt_24512,6.956761166578088,163.8,4.247106939302862,2.3984741782157157,0
sbt_5830,6.894647908817283,163.8,4.209186757519708,1.9802954474551486,0
smt_37840,6.866798296762826,163.8,4.192184552358257,2.375302197886073,0
smt_6474,6.866489259179774,163.8,4.191995884725137,2.3752842735329107,0
smt_19061,6.8661064346409635,163.8,4.191762170110478,2.3752523270655534,0
smt_29476,6.8657324266093935,163.8,4.191533837978873,2.375230980519708,0
smt_6594,6.865275742324559,163.8,4.191255031944175,2.3751955230234483,0
smt_29475,6.8648152748953395,163.8,4.190973916297521,2.3751532993919042,0
smt_19011,6.864418366563473,163.8,4.1907316035186035,2.37512935602694,0
smt_19014,6.863963393514757,163.8,4.190453842194601,2.375094948902167,0
rbt_621168,3.193080993363215,76.65,4.165793859573665,1.957983510890091,0
rbt_1107330,3.7473534728851856,90.3,4.149893103970306,1.9528773145415848,0
rbt_605815,3.7471148659096114,90.3,4.149628865902117,1.951371905168782,0
rbt_621171,2.5633285808526485,61.95,4.137737822199593,1.9439549800113,0
rbt_3422597,3.7303892430829673,90.3,4.131106581487229,1.942823072985281,0
rbt_606127,2.544358421604809,61.95,4.107116096214381,1.9296013911644698,0
rbt_635966,2.5302465130563343,61.95,4.084336582818941,1.9191198942513852,0
rbt_1124041,3.680963488555581,90.3,4.076371526639625,1.917043625930915,0
rbt_605921,3.0328624255511087,76.65,3.9567676784750274,1.859880918280045,0
sbt_14007,6.447280234797902,163.8,3.936068519412638,1.8514666115105747,0
sbt_4118,11.268136642553946,286.65,3.930973885419134,1.4096993522610823,0
rbt_627336,3.5200085097316274,90.3,3.898126810334028,1.8315862866359494,0
rbt_1627321,3.506714374098805,90.3,3.8834046224792966,1.82531255309358,0
rbt_1607355,3.492345637876508,90.3,3.867492400749178,1.8177774028255407,0
rbt_605902,2.395352011923117,61.95,3.8665892040728282,1.8169457529602118,0
sbt_35173,4.865762042514871,128.1,3.798409088614263,1.7856929440372518,0
rbt_1607358,2.908043454300659,76.65,3.7939249240713098,1.7833692226244802,0
sbt_21952,8.198534379556358,216.3,3.7903533886067304,1.783469145739554,0
sbt_20840,6.172879123419824,163.8,3.7685464733942755,1.773290048967673,0
sbt_6273,6.16641380595517,163.8,3.764599393135024,1.7706042552184347,0
rbt_3405838,3.35065423377153,90.3,3.7105805468123263,1.745933052415447,0
rbt_622273,2.132201620386341,57.75,3.6921240179850066,1.7378239001070819,0
rbt_1107341,2.2844392451950344,61.95,3.6875532610089334,1.734624268358498,0
rbt_638617,2.2752756474788485,61.95,3.672761335720498,1.727619641186832,0
rbt_605828,3.310310087154946,90.3,3.665902643582443,1.7250438228783544,0
rbt_1607292,3.246506523933682,90.3,3.595245319970855,1.6903368144538213,0
smt_6536,10.304193464388824,286.65,3.594695086129016,2.1426595304753198,0
smt_6703,10.303631624860751,286.65,3.5944990842005065,2.1425416321775916,0
smt_6514,10.30308068740367,286.65,3.5943068855411378,2.142426211195381,0
smt_6984,10.30299659066175,286.65,3.59427754776269,2.142408609625431,0
smt_5854,10.30214097580551,286.65,3.593979060110068,2.142229776727523,0
smt_5855,10.301499948325736,286.65,3.5937554328713537,2.142096092933006,0
smt_5657,10.300974560522235,286.65,3.5935721474000473,2.141986716091228,0
smt_21743,10.30042067865472,286.65,3.59337892156104,2.1418715936153316,0
smt_22741,10.299853160651798,286.65,3.593180938654038,2.1417538356014205,0
smt_6098,10.299402292889036,286.65,3.5930236500572255,2.1416604256758256,0
smt_19120,10.298879452623288,286.65,3.592841253313549,2.141552275848612,0
smt_22740,10.298361976829383,286.65,3.5926607280060647,2.141445413486061,0
smt_22738,10.285441137862394,286.65,3.588153196533192,2.136319256549405,0
smt_6754,10.284969040257167,286.65,3.5879885017467883,2.1362202903374023,0
smt_6567,10.284489137078667,286.65,3.5878210839276705,2.136119829156271,0
smt_6746,10.284012083207674,286.65,3.5876546601108235,2.136020105911463,0
smt_6812,10.283543268093933,286.65,3.5874911104461655,2.1359222424813242,0
rbt_1635060,2.2030246280649473,61.95,3.556133378635912,1.6720790519236743,0
rbt_1626490,3.2110369335159343,90.3,3.5559655963631607,2.6931457223888504,0
sbt_37156,5.803876376871491,163.8,3.5432700713501166,1.6648125130969413,0
rbt_605867,3.193135836892521,90.3,3.5361415690947076,1.6627307305585575,0
sbt_4615,5.727701187345008,163.8,3.4967650716391985,1.6460736259148827,0
sbt_3373,5.727699968211203,163.8,3.4967643273572664,1.6460728241927678,0
sbt_20793,5.727698850634563,163.8,3.4967636450760455,1.6460720947945475,0
sbt_4010,5.727697120787204,163.8,3.4967625890031773,1.6460709757657817,0
sbt_28804,5.727695552558811,163.8,3.4967616315987855,1.6460699712661115,0
rbt_605812,3.1187955222697945,90.3,3.4538156392799495,1.6253087965212376,0
rbt_632613,3.115572035327476,90.3,3.4502458862984233,1.6227013537789106,0
rbt_622713,3.0992842012540796,90.3,3.4322084177786047,1.612785383685005,0
rbt_606120,2.1161393282464434,61.95,3.4158826928917563,1.6045334626390657,0
sbt_37537,7.332495051368585,216.3,3.3899653496849673,1.2928680649714146,0
sbt_37545,7.332486388347255,216.3,3.389961344589577,1.2928686593480274,0
sbt_37546,7.332469634721527,216.3,3.3899535990390786,1.2928674187090972,0
sbt_26269,7.32978585714746,216.3,3.3887128327080256,1.5933834112818792,0
sbt_37539,7.3254149523385275,216.3,3.386692072278561,1.75362878064216,0
sbt_37538,7.325409413649858,216.3,3.3866895116273033,1.7536293063833768,0
rbt_1132019,3.018220191156182,90.3,3.34243653505668,1.5715051859392501,0
rbt_605863,3.0036044252311194,90.3,3.326250747764252,1.5643367175692058,0
rbt_634166,2.5237799650397976,76.65,3.292602694115848,1.5472255164456234,0
rbt_1138614,2.026499182670965,61.95,3.2711851213413476,1.5380055849316008,0
rbt_605803,2.916816332087148,90.3,3.2301399026435744,1.5183814867150776,0
rbt_605834,2.896740640253364,90.3,3.207907685773382,1.5101044630459102,0
smt_29484,5.240688452868289,163.8,3.19944349991959,1.5854816877230036,0
smt_22951,5.240674934914334,163.8,3.199435247200448,1.5854733983191291,0
smt_19381,5.239335487839509,163.8,3.1986175139435336,1.5846534125391656,0
smt_18804,5.2386382330978325,163.8,3.1981918394980657,1.5842275693638224,0
smt_19380,5.237839257502503,163.8,3.197704064409342,1.583740450991889,0
rbt_605904,1.9807358269195172,61.95,3.1973136834859037,1.501349418224324,0
smt_5349,5.237199162303458,163.8,3.1973132858995466,1.5833508564264303,0
smt_18803,5.236549066895843,163.8,3.196916402256314,1.5829557766985147,0
smt_13454,5.235885305280043,163.8,3.196511175384641,1.5825530196265696,0
smt_19377,5.235096345731558,163.8,3.1960295150986306,1.5820751237868873,0
smt_29411,5.234104562454907,163.8,3.1954240308027515,1.5814756551634668,0
smt_8954,5.233495257141426,163.8,3.19505204953689,1.581108082121034,0
smt_5584,5.232785038994604,163.8,3.194618460924666,1.5806803193552683,0
rbt_605810,2.4436585402818514,76.65,3.1880737642294212,1.4983552157852247,0
rbt_605864,2.871831025210186,90.3,3.18032228705447,1.4957162438967693,0
smt_37837,6.867318039517803,216.3,3.1749043178538154,1.7988064845797638,0
smt_37841,6.8669947752776395,216.3,3.174754866055312,1.7987763394476002,0
rbt_609682,2.4211708022789127,76.65,3.1587355541799247,1.485899925007468,0
rbt_622703,1.9426968127082553,61.95,3.1359109163975067,2.3754300989603396,0
rbt_605835,2.830961386475997,90.3,3.135062443495013,1.4757974933825295,0
smt_7052,5.133655824231174,163.8,3.134100014793147,1.7176445995092768,0
sbt_14006,5.124339234020912,163.8,3.1284122307819975,1.4710593301739248,0
sbt_27416,6.672108922330056,216.3,3.084655072736965,1.450536309735436,0
sbt_15213,6.672108876244179,216.3,3.084655051430503,1.450536299790385,0
rbt_606128,2.3513461557824256,76.65,3.0676401249607634,1.441613986101723,0
rbt_1607257,2.7451600968292134,90.3,3.040044404019062,1.4289558437793666,0
rbt_607385,2.7400083538456808,90.3,3.034339262287576,1.427097908834341,0
rbt_3405845,2.7311484255710954,90.3,3.024527603068766,1.4236819801420524,0
rbt_633056,2.7273968154190404,90.3,3.0203729960343746,1.419979665261348,0
rbt_606141,2.7247034322270767,90.3,3.0173902903954337,1.420294070757903,0
rbt_623015,2.717183711894305,90.3,3.0090628038696625,2.279090112668725,0
sbt_34389,3.838087260881966,128.1,2.996164918721285,2.3052303535152174,0
rbt_605982,2.6622810747424714,90.3,2.948262541243047,1.386984015467014,0
rbt_1606000,2.66079125431156,90.3,2.9466126847304097,1.3852795770571102,0
smt_37855,6.366521496708849,216.3,2.943375634169602,1.5563520885533084,0
smt_37854,6.366188667529569,216.3,2.943221760300309,1.5563771504863417,0
smt_37853,6.365882448476399,216.3,2.9430801888471563,1.5564076352774345,0
smt_37852,6.365568194167396,216.3,2.942934902527691,1.5564333992157031,0
smt_37851,6.365272258603128,216.3,2.942798085345875,1.5564643721816154,0
smt_37850,6.364964499949775,216.3,2.942655802103456,1.556493889225526,0
smt_37849,6.364658055599587,216.3,2.9425141264907935,1.5565263169851908,0
smt_37848,6.364340726221333,216.3,2.9423674185026965,1.5565574417747612,0
smt_37847,6.364024652515772,216.3,2.942221291038267,1.5565679186319048,0
smt_37846,6.363802537679595,216.3,2.942118602718259,1.5566085596999886,0
smt_37845,6.363499410581445,216.3,2.9419784607403816,1.5566439326336414,0
smt_38000,6.363176369458309,216.3,2.941829112093531,1.5566659122608,0
smt_38002,6.362902843743809,216.3,2.9417026554525236,1.5566332982586737,0
smt_38001,6.362895747414846,216.3,2.941699374671681,1.556635143270803,0
smt_37843,6.362884981317695,216.3,2.9416943972804876,1.5567017177873932,0
smt_37842,6.362587147111877,216.3,2.941556702317095,1.5566999838174558,0
smt_37838,6.3624332455503545,216.3,2.9414855504162523,1.5567375980166729,0
rbt_1629639,2.6485990099247085,90.3,2.933110752962025,1.3780487040150549,0
sbt_3952,4.7906521948391045,163.8,2.924696089645363,1.3762628328361755,0
sbt_4120,4.79065076172493,163.8,2.9246952147282843,1.3762619089831933,0
sbt_20855,4.790649366489061,163.8,2.9246943629359343,1.3762610158431778,0
sbt_20854,4.790648042973902,163.8,2.9246935549291218,1.376260174146353,0
rbt_635963,1.8101966219699606,61.95,2.9220284454720913,1.3725345799331305,0
smt_25186,4.734780597469157,163.8,2.8905864453413654,1.5895253756252676,0
rbt_626481,2.6038791770260925,90.3,2.883587128489582,1.3553841086401526,0
rbt_1607306,2.1959194878643546,76.65,2.864865607128969,1.3469795918672613,0
rbt_605901,2.5782911207584345,90.3,2.855250410585199,1.3416162002381868,0
rbt_605820,2.1854052635493817,76.65,2.851148419503433,1.3409095595119014,0
rbt_3405847,2.573313201870191,90.3,2.849737765083268,1.341265569419974,0
rbt_1607289,2.170406082910251,76.65,2.831580016843119,1.330626807903674,0
sbt_34000,6.124682481680852,216.3,2.8315684150165747,1.3308636586535827,0
sbt_20828,4.595981985574197,163.8,2.8058498080428547,1.3187770276048427,0
rbt_1609690,2.49545594520959,90.3,2.7635171043295568,1.2984637753351578,0
sbt_34382,3.514098104089386,128.1,2.743245982895696,1.2891177277902457,0
rbt_1625170,2.475347133111382,90.3,2.741248209425672,1.2881025362857426,0
rbt_605821,3.499887189829762,128.1,2.732152373013085,1.2837099079221252,0
sbt_35105,3.492345272555264,128.1,2.7262648497699176,1.281383777181991,0
smt_37856,5.872001596427575,216.3,2.714748773198139,1.4614875100104419,0
smt_15243,4.444388400194583,163.8,2.7133018316206243,1.5637749310059545,0
smt_26472,4.443984036555397,163.8,2.713054967372037,1.5637776213950267,0
smt_14780,4.443525975861618,163.8,2.712775321038839,1.5637716945907192,0
smt_14754,4.443069161702916,163.8,2.712496435716066,1.5637666199769373,0
smt_14729,4.442614890214481,163.8,2.712219102695043,1.5680402706992702,0
smt_21229,4.442154006759623,163.8,2.7119377330644823,1.5680308574517727,0
smt_26474,4.441719951349812,163.8,2.7116727419718023,1.5680185377006264,0
smt_22453,4.441337315067506,163.8,2.7114391422878548,1.5680288251179153,0
smt_14544,4.440877949762902,163.8,2.711158699488951,1.5680267004963027,0
smt_14113,4.440419435567559,163.8,2.710878776292771,1.5680334330651604,0
smt_22508,4.439916714168806,163.8,2.7105718645719206,1.5680233746550847,0
smt_14452,4.439473783935121,163.8,2.7103014553938465,1.5680120920835747,0
smt_30311,4.4391022951945365,163.8,2.7100746612909257,1.56802924881931,0
smt_26478,4.438644421646237,163.8,2.7097951292101565,1.5680180640882924,0
rbt_605988,2.4439631632837524,90.3,2.7064929825955177,1.2736183078748544,0
smt_6512,7.685022305203664,286.65,2.6809776051643692,1.6144859860906016,0
smt_6425,7.6846530761799645,286.65,2.6808487968532932,1.614424322846886,0
smt_6930,7.68408755034799,286.65,2.6806515089300507,1.6143250830441194,0
rbt_605804,1.6564797371054985,61.95,2.673897880719126,1.2565872320719105,0
sbt_6048,4.33153462808245,163.8,2.6444045348488703,1.2443354173456558,0
smt_856,4.326392967311721,163.8,2.641265547809353,1.5303333697441273,0
smt_15622,4.325890925685983,163.8,2.6409590510903436,1.5302954520563885,0
smt_23196,4.325612038649747,163.8,2.6407887903844607,1.5303001604013053,0
smt_15581,4.325313161403718,163.8,2.6406063256432954,1.5303063071180736,0
smt_15568,4.32498976004649,163.8,2.640408888917271,1.5303069726550047,0
rbt_605829,2.3817338464776863,90.3,2.637579010495777,1.239928735625712,0
smt_22686,7.546128922501599,286.65,2.632523608059166,1.6549742997184878,0
smt_6239,7.545693163504791,286.65,2.6323715902685474,1.6548963745544498,0
smt_23961,7.545267887078634,286.65,2.632223229401233,1.6548207203964889,0
smt_29407,7.54483534739205,286.65,2.6320723346911046,1.654743274276557,0
smt_6278,7.544448005245267,286.65,2.6319372074813425,1.6546754372236014,0
smt_6630,7.543996459615085,286.65,2.631779682405402,1.6545955962127799,0
smt_19070,7.543542840263039,286.65,2.6316214338960546,1.6545155565377119,0
sbt_15045,5.691962573470441,216.3,2.6315129789507354,1.237706147579657,0
smt_6639,7.543089566795161,286.65,2.6314633060509895,1.6544353655678734,0
smt_19117,7.5426665306348175,286.65,2.6313157267171876,1.6543607030521779,0
smt_21514,7.525460319727752,286.65,2.6253132111382356,1.6492443966141994,0
smt_5615,7.5250212829425145,286.65,2.625160049866567,1.6491628534115994,0
smt_18742,7.524679416351628,286.65,2.6250407871451698,1.6491022293882223,0
smt_6270,7.524142584671416,286.65,2.6248535093917376,1.6490029095850973,0
smt_5967,7.523725119138351,286.65,2.6247078734129956,1.6489276174140806,0
smt_5772,7.523232738386102,286.65,2.6245361026987974,1.6488380386769235,0
smt_6158,7.5227458503843225,286.65,2.624366248171751,1.6487490167594785,0
smt_6263,7.522324255365814,286.65,2.6242191715910743,1.64867388219722,0
smt_6384,7.521801499838399,286.65,2.624036804409,1.6485794243019132,0
smt_22684,7.521290097467752,286.65,2.6238583978607193,1.648486283518445,0
smt_22685,7.520872903741715,286.65,2.623712856703895,1.6484116201438181,0
smt_29447,7.520435573971613,286.65,2.6235602909372453,1.6483336642703883,0
smt_19065,7.519967146419393,286.65,2.623396876476328,1.648250727514603,0
smt_24385,7.51943795153905,286.65,2.6232122628777432,1.648156268586031,0
rbt_1607316,2.355507473356367,90.3,2.6085354079251015,1.976543663007605,0
rbt_1107342,1.6157084815107374,61.95,2.6080847159172516,1.2262305141469556,0
smt_29448,7.470507521223585,286.65,2.6061425156893723,1.6365944158162566,0
smt_6824,7.470084190738927,286.65,2.605994833678328,1.6365133695224319,0
smt_6855,7.469630346131798,286.65,2.605836506587057,1.636427029935713,0
smt_19062,7.469100442444611,286.65,2.6056516457158945,1.6363248805957948,0
smt_7054,7.4686793274925884,286.65,2.6055047366100084,1.6362446592825652,0
smt_6446,7.4682491322330105,286.65,2.6053546597708044,1.636162896561949,0
smt_39006,7.467808445501903,286.65,2.6052009229031583,1.6360788451741024,0
smt_39008,7.467410299623609,286.65,2.60506202673072,1.6360000277122433,0
smt_39007,7.467393519298973,286.65,2.605056172788758,1.636000100299114,0
smt_6122,7.4670114854253455,286.65,2.6049228974098537,1.635928781678757,0
smt_18741,7.466529463665673,286.65,2.604754740507823,1.6358375251243347,0
smt_5938,7.466082964175603,286.65,2.604598975815665,1.6357541618696867,0
smt_5946,7.465567468998987,286.65,2.60441914146136,1.6356569722939305,0
smt_37925,5.6119333230805335,216.3,2.594513787831962,1.4027490006168257,0
smt_37924,5.6117847231445035,216.3,2.594445086983127,1.4028082610341954,0
smt_37923,5.611466802603491,216.3,2.59429810568816,1.4028462470539311,0
smt_37864,5.611153525055072,216.3,2.5941532709454793,1.4028447013435923,0
smt_37863,5.6110051481507135,216.3,2.5940846732088367,1.4028631337881625,0
smt_37862,5.6108569551119425,216.3,2.5940161604770884,1.4029054407634627,0
smt_37861,5.610612235735914,216.3,2.5939030216069874,1.4029490362606793,0
smt_37860,5.610316072991376,216.3,2.5937660993949954,1.4029907328437645,0
smt_37859,5.610003886359189,216.3,2.593621769005635,1.4030109986093418,0
smt_37858,5.609771356347803,216.3,2.593514265532965,1.403063307993201,0
smt_37831,5.609449941106866,216.3,2.5933656685653563,1.4030629793056641,0
smt_37898,5.59545399105057,216.3,2.5868950490293896,1.3935998682081296,0
smt_37897,5.595095769214866,216.3,2.5867294356055783,1.393616983948571,0
smt_37896,5.594784624611994,216.3,2.586585586968097,1.3936449851391413,0
smt_37895,5.5944509900062425,216.3,2.586431340733353,1.3936693987078848,0
smt_37894,5.594122800756702,216.3,2.586279612000325,1.393691211510953,0
smt_37893,5.593812493006701,216.3,2.5861361502573743,1.3937184011461454,0
smt_37892,5.593488686032973,216.3,2.5859864475418277,1.3937418479955077,0
smt_37891,5.593176467501799,216.3,2.5858421024048996,1.3937711843672707,0
smt_37890,5.592844574196175,216.3,2.5856886612095122,1.3938227249581105,0
smt_37889,5.592396297409176,216.3,2.585481413504011,1.393813417279551,0
smt_37888,5.592171101068422,216.3,2.5853773005401854,1.3938303637558158,0
smt_37887,5.591955557389382,216.3,2.5852776502031354,1.3938735897366044,0
smt_37886,5.591622100429064,216.3,2.5851234860975794,1.393899771071391,0
smt_37885,5.591300919790164,216.3,2.584974997591384,1.3939285340938092,0
smt_37884,5.590976569235955,216.3,2.5848250435672466,1.3939574802440236,0
smt_37883,5.590651242599712,216.3,2.5846746382800334,1.3939887582404011,0
smt_37882,5.59031625948177,216.3,2.5845197685999857,1.3940168026834776,0
smt_37881,5.589992478663453,216.3,2.584370077976631,1.3940476449228683,0
smt_37880,5.589663985169789,216.3,2.5842182085852006,1.3940739640311544,0
smt_37879,5.589355279895244,216.3,2.5840754877000665,1.394110011253181,0
smt_37878,5.589015020045595,216.3,2.583918178476928,1.394138070476753,0
smt_37877,5.588695067202476,216.3,2.5837702576063224,1.394171595017104,0
smt_37876,5.588363497249743,216.3,2.583616965903718,1.3942043856368909,0
smt_37875,5.588030526770379,216.3,2.5834630267084506,1.3942376736498703,0
smt_37874,5.587696351235666,216.3,2.5833085303909686,1.3942690372295168,0
smt_37873,5.58737189126734,216.3,2.583158525782404,1.3942967203677974,0
smt_37945,5.587070787213501,216.3,2.5830193191000927,1.3943080470614049,0
smt_37944,5.5868561975744635,216.3,2.5829201098356283,1.3943385157799109,0
smt_37943,5.586605001533035,216.3,2.5828039766680697,1.3943747608900763,0
smt_37942,5.5863096571176145,216.3,2.5826674327866916,1.3944053017929539,0
smt_37941,5.586016893744548,216.3,2.5825320821750104,1.3944358329208164,0
smt_37940,5.585726931344021,216.3,2.582398026511336,1.3944684073745284,0
smt_37939,5.585430948637294,216.3,2.5822611875345785,1.3945019996739154,0
smt_37938,5.585128813136883,216.3,2.5821215039930108,1.3945359811828413,0
smt_37937,5.584823250226931,216.3,2.581980235888549,1.3945686449645454,0
smt_37936,5.58452302211423,216.3,2.5818414341720897,1.3946023086429717,0
smt_37935,5.584222748352359,216.3,2.5817026113510675,1.3946295316104793,0
smt_37934,5.583951219367131,216.3,2.581577077839635,1.3946664798786361,0
smt_37933,5.583654574748033,216.3,2.5814399328469873,1.3947010743198192,0
smt_37932,5.583356346438239,216.3,2.581302055681109,1.3947358139307164,0
smt_23147,4.223029745280314,163.8,2.5781622376558695,1.5049985914821062,0
smt_16038,4.222744328708219,163.8,2.5779879906643584,1.5050975816798038,0
sbt_22669,5.551414529088542,216.3,2.56653468751204,1.2065650555512377,0
rbt_3405987,1.5897382648461742,61.95,2.5661634622214273,1.207981233033019,0
rbt_1132012,2.307438172387125,90.3,2.5553025164862957,1.2009413997980747,0
smt_37986,5.52623085810184,216.3,2.5548917513184652,1.413749055007021,0
smt_37987,5.525998904607892,216.3,2.554784514381827,1.4137608201717502,0
smt_37993,5.525702628149084,216.3,2.554647539597357,1.4137431820808708,0
smt_37920,5.525554528156807,216.3,2.5545790698829434,1.4137754052211786,0
smt_37919,5.5251951213424375,216.3,2.5544129086187874,1.413779399947151,0
smt_37918,5.524842422652732,216.3,2.5542498486605325,1.413782412005218,0
smt_37917,5.52450512489173,216.3,2.5540939088727366,1.413789277998012,0
smt_37916,5.524157698006105,216.3,2.553933286179429,1.4137944872853845,0
smt_37915,5.52381509638998,216.3,2.553774894308821,1.413787597824214,0
smt_37914,5.523560655363308,216.3,2.553657260916925,1.4138041140582411,0
smt_37913,5.523227619463418,216.3,2.5535032914763836,1.4138133630491032,0
smt_37912,5.522877263210405,216.3,2.553341314475453,1.4138190663969683,0
smt_40685,5.52253804481552,216.3,2.5531844867385667,1.4138236520729643,0
smt_37911,5.52221682021578,216.3,2.5530359779083587,1.4137851546537006,0
smt_37910,5.522197994780381,216.3,2.553027274517051,1.4138353102874925,0
smt_37909,5.521853359356783,216.3,2.5528679423748417,1.4138426365976289,0
smt_37908,5.521515618522604,216.3,2.552711797745078,1.4138535918717487,0
smt_40683,5.521162566302204,216.3,2.552548574342212,1.4138590749982056,0
smt_37906,5.520834501080352,216.3,2.5523969029497695,1.413869972405059,0
smt_37905,5.520494667246759,216.3,2.5522397906827363,1.4138760120982454,0
rbt_1607268,1.9562325359998296,76.65,2.552162473580991,1.1993186495624562,0
smt_37904,5.520178388969482,216.3,2.552093568640537,1.4138855416188942,0
smt_37903,5.519861256756949,216.3,2.5519469518062636,1.413883015878057,0
sbt_35588,5.506524010738303,216.3,2.5457808648813236,1.1963937468576522,0
rbt_605823,2.297152643388039,90.3,2.543912118923631,1.1962283907027291,0
smt_13546,4.166400670639426,163.8,2.5435901530155225,1.488128097064253,0
smt_21225,4.166117485677203,163.8,2.543417268423201,1.488163425324988,0
smt_13930,4.16560825242168,163.8,2.5431063812098165,1.4881598506860445,0
smt_21226,4.1651030075887014,163.8,2.542797928930831,1.4881379219518143,0
smt_13280,4.164716667443413,163.8,2.5425620680362715,1.4881343160308766,0
smt_14437,4.164349045195136,163.8,2.5423376344292645,1.4881352293040038,0
smt_13955,4.16397855233675,163.8,2.542111448313034,1.4881372447608106,0
smt_26469,4.1636033805736945,163.8,2.541882405722646,1.4881307403679334,0
smt_20808,4.163275640708022,163.8,2.541682320334568,1.4881358291008266,0
smt_23095,4.162932594218982,163.8,2.5414728902435786,1.488107969537911,0
smt_20807,4.162759655283025,163.8,2.541367310917597,1.4881446944095476,0
smt_13717,4.162395170219354,163.8,2.541144792563708,1.4881353780225934,0
smt_37963,5.477924009088969,216.3,2.5325584877896294,1.3923281226981807,0
smt_37983,5.477481779510331,216.3,2.532354035834642,1.3923295894086642,0
smt_37984,5.477032478075085,216.3,2.5321463144128917,1.3923296980423838,0
smt_37985,5.476590637551401,216.3,2.531942042326121,1.3923303752067424,0
smt_37947,5.47615615182751,216.3,2.531741170516648,1.3923274565932304,0
smt_37948,5.4757588580630525,216.3,2.531557493325498,1.3923314561159212,0
sbt_21281,4.123007239305059,163.8,2.517098436694175,1.1826495560837411,0
smt_14797,4.116637186302264,163.8,2.5132095154470475,1.4716580341183736,0
smt_23041,4.116272163684183,163.8,2.5129866689158624,1.4716517649862901,0
smt_14823,4.115902437932047,163.8,2.512760951118466,1.4716461039889959,0
smt_13752,4.1155275514414065,163.8,2.5125320826870614,1.4715816312627361,0
smt_23225,4.098737686968401,163.8,2.502281860176069,1.465076503774293,0
smt_21220,4.098322720539128,163.8,2.5020285229176604,1.4650649921461596,0
smt_14845,4.097889450025155,163.8,2.501764011004368,1.4650534805964124,0
smt_26425,4.097441160776403,163.8,2.501490330144324,1.4650400020238354,0
smt_20810,4.096995976106483,163.8,2.5012185446315525,1.4650175275869,0
smt_26429,4.096621289712273,163.8,2.5009897983591407,1.4650079110020988,0
smt_26430,4.096249864247638,163.8,2.5007630428862258,1.464999254886333,0
smt_21222,4.07967123732389,163.8,2.4906417810280157,1.458996739469411,0
smt_14301,4.079381141962943,163.8,2.4904646776330543,1.4589959272807478,0
smt_23277,4.0790148328020885,163.8,2.4902410456667203,1.4589778624806176,0
smt_26427,4.078670485447508,163.8,2.490030821396525,1.4589675863758889,0
smt_20812,4.078307789519693,163.8,2.4898093953111675,1.4589546880818103,0
smt_15154,4.077944519241022,163.8,2.4895876185842623,1.4589392016506675,0
smt_14674,4.077602138049696,163.8,2.489378594657934,1.458939188995149,0
rbt_605989,2.2442176323466554,90.3,2.485290844237714,1.1680189138122703,0
rbt_1121173,2.2406114347616817,90.3,2.4812972699464915,1.1670331694659006,0
rbt_605807,2.2348606871320227,90.3,2.4749287786622625,1.1642813922162083,0
rbt_606130,1.8821999428968144,76.65,2.4555772249143044,1.1538168028802769,0
sbt_3491,4.016071474596458,163.8,2.4518140870552245,1.1524577652963128,0
rbt_637399,1.5099826395126936,61.95,2.437421532708141,1.1453584213597552,0
sbt_21191,3.9837962813843006,163.8,2.432110061895177,1.1434140511649198,0
sbt_26310,3.931223598447209,163.8,2.4000144068664278,1.128465274099203,0
rbt_637705,2.154610693039279,90.3,2.386058353310387,1.807386951198654,0
rbt_1105833,2.1479642675543418,90.3,2.378697970713557,1.1181058111968287,0
smt_29426,5.134377649628093,216.3,2.3737298426389706,1.3010645818089286,0
rbt_1607276,2.1390189773042154,90.3,2.3687917799603717,1.1130211517681068,0
smt_37960,5.071445353742058,216.3,2.344634930070299,1.320360654253535,0
smt_37962,5.071066406005293,216.3,2.3444597346302785,1.3203638657232535,0
smt_37981,5.054646366619728,216.3,2.3368684080535034,1.2984316261880142,0
smt_37951,5.054290947735008,216.3,2.3367040904923755,1.298434270734163,0
smt_37952,5.053935036199272,216.3,2.3365395451684106,1.2984488871049675,0
smt_37953,5.0534970756591004,216.3,2.3363370668789183,1.2984509610023347,0
smt_37954,5.053075340051039,216.3,2.3361420897138414,1.3004847739951324,0
smt_37955,5.052617873269362,216.3,2.335930593282183,1.3004773293884073,0
smt_37956,5.052250192001381,216.3,2.3357606065655947,1.3004919100309884,0
smt_37957,5.0518154729843205,216.3,2.3355596268998244,1.3004979347352312,0
smt_37958,5.051383406859525,216.3,2.335359873721463,1.3005061421570834,0
smt_37959,5.0509432837533055,216.3,2.335156395632596,1.3005127096873768,0
rbt_1607319,2.1059124352127223,90.3,2.332128942649748,1.6565387303992714,0
rbt_622709,2.103328175752432,90.3,2.3292670827823168,1.0950393295480616,0
rbt_1607328,2.101404205819988,90.3,2.327136440553697,1.0942132315468867,0
rbt_607366,2.100216278437574,90.3,2.325820906353903,1.092963699959098,0
sbt_21953,3.7473537257041505,163.8,2.287761737304121,1.0765862293925663,0
sbt_21849,3.7473536652748507,163.8,2.2877617004119966,1.0765862118125145,0
sbt_21968,3.747353592073257,163.8,2.287761655722379,1.0765861905647338,0
smt_37979,4.942222471321577,216.3,2.284892497143586,1.2856642157633165,0
smt_37980,4.941840919969754,216.3,2.2847160979980368,1.2856436268366096,0
rbt_1633892,2.0296868361150584,90.3,2.247715211644583,1.0563858375419974,0
sbt_21137,3.6809609036425495,163.8,2.2472288789026553,1.0568301258831279,0
rbt_1134165,2.0251172729992826,90.3,2.242654787374621,1.0552160267171107,0
rbt_1131858,2.0238456118253234,90.3,2.2412465247235036,1.0542590563556895,0
smt_6074,6.419265766130712,286.65,2.2394089538219824,1.3358861219403817,0
smt_6082,6.41881929774837,286.65,2.239253199981989,1.335822110562103,0
smt_6649,6.4183793651657925,286.65,2.239099726204707,1.335759179935556,0
smt_29408,6.417949300615008,286.65,2.238949694964245,1.3356982722777684,0
smt_6422,6.417518391742037,286.65,2.238799369175663,1.3356375459572896,0
smt_22683,6.417085339626408,286.65,2.238648295700823,1.3355766471451724,0
smt_22793,6.400105987938507,286.65,2.232724921660041,1.3230640679975958,0
smt_22790,6.399653047959232,286.65,2.232566910154974,1.322994472399797,0
smt_29449,6.399380343975991,286.65,2.2324717753273995,1.3237833251824687,0
smt_6370,6.39921587245635,286.65,2.2324143982055995,1.3229280170905529,0
smt_6401,6.398944536683145,286.65,2.2323197406883466,1.323719368655099,0
smt_29409,6.39877649076744,286.65,2.232261116611701,1.3228619933227699,0
smt_21348,6.398506328290731,286.65,2.2321668684077207,1.3236690861653557,0
smt_5650,6.398316239354022,286.65,2.232100554458058,1.3227923495435197,0
smt_6094,6.397861935875529,286.65,2.2319420672860737,1.322721080968256,0
smt_29477,6.397513135600476,286.65,2.231820385697009,1.3226709926688385,0
smt_29450,6.397086923463503,286.65,2.2316716983999663,1.3226085814535866,0
smt_6231,6.396618409843445,286.65,2.2315082539136384,1.3225380844480512,0
smt_6340,6.396179426027899,286.65,2.2313551111208443,1.3224734949950843,0
rbt_1607353,2.0060390306008715,90.3,2.2215271656709543,1.0440733152614046,0
sbt_34390,3.626218307779517,163.8,2.213808490707886,1.6769466132291404,0
smt_6581,6.338077142705035,286.65,2.2110856942979367,1.2991302687443484,0
smt_6701,6.337634962191637,286.65,2.2109314363131474,1.2990685266214133,0
smt_21959,6.337149456850659,286.65,2.2107620641376795,1.298997460039206,0
smt_19219,6.329171934258996,286.65,2.2079790456162556,1.2889353617234351,0
smt_5952,6.328701813805834,286.65,2.2078150405741614,1.2888594259098516,0
smt_29478,6.328211628881988,286.65,2.2076440358911524,1.2887788534163012,0
smt_22841,6.3277797858048626,286.65,2.207493384198452,1.2887099974165166,0
smt_6660,6.327313373366676,286.65,2.207330672725162,1.2886346714127486,0
smt_22845,6.291537366950061,286.65,2.1948499448630954,1.2675985354876416,0
smt_18913,6.290991565331006,286.65,2.1946595378792977,1.2675087974837813,0
smt_5786,6.290462661745191,286.65,2.1944750259009913,1.2674210253205194,0
smt_29479,6.290007404414456,286.65,2.194316205970506,1.267347294009439,0
smt_19224,6.289539604100227,286.65,2.194153010326261,1.2672720443383008,0
smt_25183,4.734148255923234,216.3,2.1886954488780552,1.2034269180157564,0
smt_25117,4.733502656190565,216.3,2.188396974660455,1.2031298019134882,0
smt_25116,4.732839108559326,216.3,2.1880902027551206,1.2028247636078415,0
smt_25115,4.732320017352266,216.3,2.187850216066697,1.2025863727329154,0
smt_25114,4.731864488362968,216.3,2.1876396155168596,1.2023773464464307,0
smt_25113,4.731332947077246,216.3,2.1873938728974784,1.202133646867448,0
smt_25112,4.730771540053422,216.3,2.187134322724652,1.2018764962574926,0
smt_25111,4.730403773624676,216.3,2.186964296636466,1.201708177084041,0
smt_25110,4.7301381596868985,216.3,2.186841497774803,1.2015866776539728,0
smt_25109,4.729437670916354,216.3,2.1865176472105197,1.201266522775987,0
smt_25108,4.72890442754017,216.3,2.1862711176792278,1.2010230686055132,0
smt_25107,4.728186176037162,216.3,2.1859390550333617,1.2006955078058112,0
smt_25106,4.727559163708346,216.3,2.1856491741601225,1.2004098955004803,0
smt_25105,4.7269178453995,216.3,2.1853526793340268,1.2001180944517909,0
smt_29427,4.726276310673451,216.3,2.185056084453745,1.1998265278604372,0
smt_6407,4.725006761294099,216.3,2.184469145304715,1.1992505259278319,0
smt_22794,4.72437501487897,216.3,2.184177075764665,1.1989643898375804,0
smt_6477,4.723677908509062,216.3,2.183854788954721,1.1986490309264972,0
smt_6641,4.722772435214823,216.3,2.1834361697710696,1.1982400092791932,0
smt_6157,4.7221367651229675,216.3,2.1831422862334566,1.19795326967737,0
smt_6694,4.7214189499211034,216.3,2.182810425298707,1.1976298804418468,0
sbt_20633,3.4718038104483693,163.8,2.119538345817075,1.3988125899372035,0
smt_37973,4.581802621060384,216.3,2.1182628853723457,1.2198356800965449,0
smt_37991,4.581638817895313,216.3,2.1181871557537275,1.2198472676711274,0
smt_37974,4.581407974500771,216.3,2.1180804320391915,1.2198737498548418,0
smt_37990,4.581014532744311,216.3,2.1178985357116553,1.2198752380692508,0
smt_37975,4.580650782568119,216.3,2.117730366420767,1.2198854688313858,0
smt_37976,4.580257281538445,216.3,2.117548442689988,1.2198915806732444,0
smt_37977,4.579869355199437,216.3,2.117369096254941,1.2198961665071952,0
smt_37978,4.579500302475882,216.3,2.1171984754858446,1.2199098182110364,0
smt_37970,4.539710352708119,216.3,2.0988027520610815,1.210227630217137,0
smt_37971,4.539194924771885,216.3,2.0985644589791423,1.2101973482680952,0
smt_37972,4.538928575521679,216.3,2.098441320167211,1.2102154663071243,0
sbt_4619,4.5388368291988685,216.3,2.098398903929204,0.9863030026145233,0
smt_37989,4.5385485163506845,216.3,2.0982656108879723,1.2102978560360147,0
smt_37964,4.438267370419344,216.3,2.051903546194796,1.1874082831272754,0
smt_37965,4.43692410269449,216.3,2.0512825255175633,1.1874192582039236,0
smt_37994,4.43674884907185,216.3,2.0512015021136616,1.1873970676510333,0
smt_37995,4.436744706788147,216.3,2.051199587049536,1.187397413180286,0
smt_37996,4.436739712198643,216.3,2.051197277946668,1.1874399271564333,0
smt_37966,4.436436167564639,216.3,2.051056942933259,1.1874540026858653,0
smt_37967,4.43606518857986,216.3,2.0508854316134353,1.1874613007948016,0
smt_37968,4.435684923573763,216.3,2.050709627172336,1.1874669518687044,0
smt_37969,4.435311828381285,216.3,2.0505371374855685,1.187461359769617,0
rbt_606110,1.2614505857620928,61.95,2.0362398478806982,0.9567024080220189,0
rbt_1607284,1.8320111747812924,90.3,2.0288052876869243,0.9537333593928539,0
rbt_1607302,1.24159678308249,61.95,2.00419174024615,0.9416293297070397,0
rbt_607382,1.791043783437709,90.3,1.9834371909609183,0.9324463404116017,0
rbt_1607273,1.5190587368707102,76.65,1.9818117897856622,0.9312020756234509,0
sbt_26614,3.211036655284764,162.75,1.9729871921872588,1.4942613245048701,0
sbt_26512,3.2110350602623883,162.75,1.9729862121427886,1.4942603334324087,0
sbt_16246,3.2110344791768686,162.75,1.9729858551009944,1.494259972911365,0
sbt_5828,3.211031730140219,163.8,1.9603368315874354,1.4846796919099496,0
sbt_3790,3.1880566652283715,163.8,1.946310540432461,0.9143695959516047,0
rbt_1137150,1.1986675679314986,61.95,1.9348951863301027,0.9095780718696481,0
rbt_3405843,1.74235527985638,90.3,1.929518582343721,0.9072846967154874,0
rbt_1607288,1.4643963106873474,76.65,1.9104974699117383,0.8979345795290298,0
rbt_605817,1.4568169013624848,76.65,1.9006091341976319,0.893339313019347,0
smt_13591,3.096467204564396,163.8,1.8903951187816828,0.937800902610774,0
sbt_30492,2.3513437812380746,124.95,1.8818277560928969,0.8843495071383661,0
rbt_607387,1.6905705378601836,90.3,1.8721711382726287,0.8797930059869993,0
sbt_21147,2.395316413382778,128.1,1.8698801041239486,0.8786588152452457,0
sbt_17923,2.395310916179857,128.1,1.8698758127867736,0.8786544866587431,0
rbt_626695,1.683522607067745,90.3,1.8643661207837707,1.412248826875625,0
rbt_623432,1.683358731558692,90.3,1.8641846418147197,0.8764877379784756,0
sbt_3473,3.0328600915214077,163.8,1.8515629374367566,0.8703274420833819,0
sbt_26790,3.994864353782754,216.3,1.8469090863535615,0.8683603216431811,0
smt_18691,5.260131261566475,286.65,1.8350361979998169,0.9651380087225303,0
smt_18692,5.259438625062418,286.65,1.8347945665663419,0.96496843052301,0
smt_22142,5.258821341834326,286.65,1.834579222687712,0.9648177944861992,0
smt_29410,5.258261255594011,286.65,1.8343838324067718,0.9646815200215353,0
smt_4821,5.257727011589344,286.65,1.8341974573833402,0.9645518923061305,0
smt_18693,5.257076539941823,286.65,1.8339705354759546,0.9643945381945049,0
smt_5832,5.256477250528145,286.65,1.8337614688742878,0.9642500284002077,0
smt_18694,5.25584985503616,286.65,1.8335425972566406,0.9640992185731537,0
smt_5643,5.255297031077957,286.65,1.8333497404772219,0.9639667398134607,0
smt_29483,5.254747701786167,286.65,1.8331581028383628,0.963835476389276,0
smt_6014,5.254203738378646,286.65,1.8329683371284304,0.9637058674673505,0
smt_18695,5.2535763595015945,286.65,1.8327494713070276,0.9635568448449621,0
smt_29482,5.25301867375241,286.65,1.8325549184554022,0.963424792895974,0
smt_6195,5.25243428482055,286.65,1.832351049998448,0.9632868397965351,0
smt_6105,5.251847930000987,286.65,1.8321464957268403,0.963148857803802,0
smt_19334,5.2195481073563625,286.65,1.8208784606162087,0.9453088494739968,0
smt_19331,5.218930208349065,286.65,1.8206629019183902,0.9451231941538674,0
smt_22269,5.2183234443522,286.65,1.8204512277523812,0.9449412424744335,0
sbt_34896,3.9054817470008123,216.3,1.8055856435509994,0.8487064364831617,0
sbt_34381,2.916815996733232,163.8,1.7807179467235847,0.8370562517849488,0
rbt_605808,1.5784073058102075,90.3,1.7479593641309052,0.8212673321336968,0
rbt_1607326,1.5758308061220054,90.3,1.7451060975880461,0.8204518183986954,0
smt_29480,4.982936813513111,286.65,1.738334838134698,0.9612684506996371,0
smt_19271,4.981793629455444,286.65,1.7379360298117719,0.9610426048040922,0
smt_5537,4.981339867388693,286.65,1.73777773151533,0.9609534787196558,0
smt_40375,2.846113249267874,163.8,1.7375538762319132,0.8646656339736768,0
smt_40374,2.845560587306964,163.8,1.737216475767377,0.8643390883660128,0
smt_40358,2.8450108602088617,163.8,1.7368808670383769,0.8640150997325549,0
smt_40357,2.844432152810042,163.8,1.736527565818096,0.8636749235227236,0
smt_40356,2.8439448079966545,163.8,1.7362300415119991,0.8633891664728336,0
smt_40355,2.843388310752062,163.8,1.7358902996044332,0.8630636650865005,0
smt_40354,2.842822916197928,163.8,1.7355451258839611,0.8627338424508987,0
smt_40353,2.8422510230186777,163.8,1.7351959847488874,0.8624011398085815,0
smt_40352,2.8417736534081683,163.8,1.734904550310237,0.8621241327200747,0
smt_40351,2.8413213140488915,163.8,1.734628396855245,0.8618622461737689,0
smt_40350,2.840768593804427,163.8,1.7342909608085635,0.8615430347788458,0
smt_40349,2.840248204741272,163.8,1.7339732629678095,0.861243295954166,0
smt_40373,2.8397152656490836,163.8,1.7336479033266687,0.8609371376400383,0
smt_40348,2.839691679498803,163.8,1.7336335039675232,0.8609236075892045,0
smt_40366,2.8392897592897772,163.8,1.7333881314345403,0.8560263219047526,0
smt_40380,2.839246196667731,163.8,1.7333615364271864,0.8559995256071214,0
smt_40347,2.8391261095945803,163.8,1.7332882231957145,0.8605996444449261,0
smt_40367,2.8388609257808155,163.8,1.7331263283155163,0.8557627386136394,0
smt_40346,2.8385638762390304,163.8,1.7329449793889073,0.8602785184186436,0
smt_40368,2.8383621904244416,163.8,1.7328218500759713,0.8554567770876159,0
smt_40369,2.838019705930937,163.8,1.7326127630836,0.8552470396414042,0
smt_40345,2.837993188408343,163.8,1.7325965741198674,0.8599535136910618,0
smt_40344,2.8374312881516346,163.8,1.7322535336701066,0.8596344546596129,0
smt_19274,4.962952296750627,286.65,1.7313630897438086,0.9494989765389809,0
smt_4942,4.9624185229560585,286.65,1.7311768787566923,0.9493920267018071,0
smt_40362,2.8354065362649954,163.8,1.7310174214072012,0.8536567274745042,0
smt_18740,4.961897766492269,286.65,1.7309952089629408,0.949288070404075,0
smt_5191,4.961379479363298,286.65,1.73081440061514,0.9491849860448078,0
smt_40378,2.8350732785614805,163.8,1.7308139673757512,0.8534552010208243,0
smt_5198,4.960866151972818,286.65,1.7306353225092683,0.9490832619368729,0
smt_40361,2.8345327171937824,163.8,1.7304839543307586,0.8531289426915923,0
smt_5549,4.960300477321421,286.65,1.7304379826692555,0.9489715981825807,0
smt_19273,4.959721999848045,286.65,1.7302361764688805,0.9488579109336336,0
smt_40360,2.8339671312989134,163.8,1.7301386637966505,0.8527884170409868,0
smt_5414,4.95923645461062,286.65,1.730066790375238,0.9487628683649653,0
smt_5522,4.958696649964283,286.65,1.7298784754803014,0.9486575987413676,0
smt_40359,2.833433019044308,163.8,1.729812587939138,0.8524676312203261,0
smt_40377,2.832772583702267,163.8,1.7294093917596256,0.8520720449243281,0
smt_40376,2.8322180542073827,163.8,1.7290708511644584,0.8517408127580378,0
smt_40861,4.935448066798276,286.65,1.7217680330710892,0.9340368143047614,0
smt_40860,4.935099001669098,286.65,1.721646259085679,0.9339664445935673,0
smt_40859,4.9347320848676794,286.65,1.7215182574106682,0.9338926625966754,0
smt_40858,4.934360107280485,286.65,1.721388490242625,0.9338180584643251,0
...